*SPEF "IEEE 1481.1999"
*DESIGN "pipeline"
*DATE "16:11:51 Tuesday October 03, 2023"
*VENDOR "unknown"
*PROGRAM "qrouter"
*VERSION "unknown"
*DESIGN_FLOW "qflow"
*DIVIDER /
*DELIMITER :
*BUS_DELIMITER <>
*T_UNIT 1 PS
*C_UNIT 1 FF
*R_UNIT 1 OHM
*L_UNIT 1 HENRY

*NAME_MAP
*1 y4[2]
*2 DFFPOSX1_40
*3 AOI21X1_12
*4 NAND3X1_8
*5 NAND2X1_24
*6 NAND2X1_17
*7 NAND2X1_34
*8 AOI22X1_3
*9 AOI21X1_23
*10 NAND2X1_12
*11 AOI22X1_1
*12 NAND2X1_3
*13 NAND2X1_4
*14 y4[3]
*15 DFFPOSX1_41
*16 AOI22X1_3
*17 NAND2X1_27
*18 AOI21X1_24
*19 NAND2X1_26
*20 AOI22X1_1
*21 NAND2X1_11
*22 AOI21X1_5
*23 NAND2X1_20
*24 AOI22X1_2
*25 NAND2X1_7
*26 y4[5]
*27 DFFPOSX1_43
*28 NAND2X1_37
*29 AOI21X1_25
*30 NAND3X1_32
*31 AOI22X1_5
*32 NAND2X1_29
*33 NAND3X1_11
*34 AOI21X1_14
*35 AOI22X1_4
*36 INVX1_15
*37 NAND2X1_21
*38 y5[3]
*39 DFFPOSX1_17
*40 NAND2X1_17
*41 NAND3X1_8
*42 AOI21X1_12
*43 NAND2X1_10
*44 NAND2X1_5
*45 AOI21X1_24
*46 AOI22X1_3
*47 NAND2X1_35
*48 NAND2X1_26
*49 y5[4]
*50 DFFPOSX1_18
*51 NAND2X1_15
*52 NAND2X1_9
*53 INVX1_7
*54 NAND3X1_9
*55 AOI21X1_11
*56 NAND2X1_24
*57 AOI22X1_3
*58 NAND2X1_27
*59 AOI21X1_23
*60 y4[4]
*61 DFFPOSX1_42
*62 NAND2X1_35
*63 NAND2X1_19
*64 AOI22X1_4
*65 AOI21X1_13
*66 NAND3X1_12
*67 NAND2X1_13
*68 NAND2X1_30
*69 AOI21X1_6
*70 AOI22X1_2
*71 clk_bF_buf5
*72 CLKBUF1_1
*73 DFFPOSX1_15
*74 DFFPOSX1_38
*75 DFFPOSX1_16
*76 DFFPOSX1_14
*77 DFFPOSX1_20
*78 DFFPOSX1_21
*79 DFFPOSX1_7
*80 DFFPOSX1_6
*81 clk_bF_buf4
*82 CLKBUF1_2
*83 DFFPOSX1_4
*84 DFFPOSX1_5
*85 DFFPOSX1_9
*86 DFFPOSX1_35
*87 DFFPOSX1_34
*88 DFFPOSX1_33
*89 DFFPOSX1_3
*90 DFFPOSX1_1
*91 clk_bF_buf3
*92 CLKBUF1_3
*93 DFFPOSX1_22
*94 DFFPOSX1_23
*95 DFFPOSX1_24
*96 DFFPOSX1_25
*97 DFFPOSX1_26
*98 DFFPOSX1_27
*99 DFFPOSX1_29
*100 DFFPOSX1_28
*101 clk_bF_buf2
*102 CLKBUF1_4
*103 DFFPOSX1_39
*104 DFFPOSX1_41
*105 DFFPOSX1_44
*106 DFFPOSX1_43
*107 DFFPOSX1_42
*108 DFFPOSX1_48
*109 DFFPOSX1_2
*110 DFFPOSX1_46
*111 clk_bF_buf1
*112 CLKBUF1_5
*113 DFFPOSX1_13
*114 DFFPOSX1_37
*115 DFFPOSX1_8
*116 DFFPOSX1_32
*117 DFFPOSX1_31
*118 DFFPOSX1_30
*119 DFFPOSX1_12
*120 DFFPOSX1_36
*121 clk_bF_buf0
*122 CLKBUF1_6
*123 DFFPOSX1_40
*124 DFFPOSX1_47
*125 DFFPOSX1_17
*126 DFFPOSX1_11
*127 DFFPOSX1_19
*128 DFFPOSX1_10
*129 DFFPOSX1_45
*130 DFFPOSX1_18
*131 y4[1]
*132 DFFPOSX1_39
*133 NAND2X1_10
*134 NAND2X1_6
*135 NAND2X1_1
*136 NAND2X1_9
*137 NAND3X1_9
*138 AOI21X1_11
*139 NAND2X1_25
*140 INVX2_1
*141 y4[6]
*142 DFFPOSX1_44
*143 AOI21X1_34
*144 NAND3X1_55
*145 NAND2X1_36
*146 NAND2X1_31
*147 AOI22X1_5
*148 NAND3X1_31
*149 AOI21X1_26
*150 _196_
*151 NAND3X1_51
*152 XNOR2X1_12
*153 AND2X2_1
*154 NOR2X1_18
*155 NAND2X1_42
*156 OR2X2_2
*157 NAND3X1_53
*158 AOI22X1_6
*159 clk
*160 CLKBUF1_2
*161 CLKBUF1_6
*162 CLKBUF1_4
*163 CLKBUF1_3
*164 CLKBUF1_1
*165 CLKBUF1_5
*166 y4[0]
*167 DFFPOSX1_38
*168 NAND2X1_2
*169 INVX4_1
*170 NAND2X1_5
*171 NAND2X1_15
*172 NAND2X1_33
*173 NAND2X1_16
*174 y5[2]
*175 DFFPOSX1_16
*176 INVX1_2
*177 NAND2X1_12
*178 NAND2X1_20
*179 NAND2X1_30
*180 NAND2X1_37
*181 NAND2X1_6
*182 y5[1_bF_buf3]
*183 BUFX4_1
*184 NAND2X1_2
*185 NAND2X1_11
*186 NAND3X1_55
*187 AOI21X1_25
*188 AOI21X1_13
*189 y5[1_bF_buf2]
*190 BUFX4_2
*191 NAND2X1_3
*192 AOI21X1_5
*193 NAND3X1_12
*194 NAND3X1_32
*195 AOI21X1_34
*196 y5[0_bF_buf3]
*197 BUFX4_5
*198 NAND2X1_1
*199 NAND3X1_54
*200 NAND2X1_13
*201 AOI21X1_26
*202 AOI21X1_14
*203 y5[0_bF_buf2]
*204 BUFX4_6
*205 NAND2X1_4
*206 AOI21X1_6
*207 NAND3X1_11
*208 NAND3X1_31
*209 NAND2X1_38
*210 y5[0_bF_buf1]
*211 BUFX4_7
*212 NAND2X1_7
*213 INVX1_14
*214 AOI21X1_35
*215 AOI22X1_2
*216 AOI22X1_4
*217 _406_
*218 NAND2X1_1
*219 OAI21X1_2
*220 OAI21X1_59
*221 NOR2X1_4
*222 NOR2X1_1
*223 OAI21X1_60
*224 _6_
*225 INVX4_1
*226 NOR2X1_19
*227 OAI21X1_59
*228 NOR2X1_10
*229 OAI21X1_7
*230 NOR2X1_2
*231 _26_
*232 AOI22X1_1
*233 OAI22X1_1
*234 OAI21X1_5
*235 NOR2X1_6
*236 INVX1_9
*237 OAI21X1_3
*238 _68_
*239 NOR2X1_8
*240 OAI21X1_61
*241 NOR3X1_1
*242 AOI22X1_6
*243 NAND3X1_27
*244 OAI21X1_45
*245 _85_
*246 NAND2X1_19
*247 OAI21X1_27
*248 NAND3X1_11
*249 AOI21X1_14
*250 NOR2X1_12
*251 OAI22X1_2
*252 _215_
*253 OAI22X1_5
*254 INVX1_16
*255 OAI21X1_37
*256 NOR3X1_4
*257 XNOR2X1_9
*258 XNOR2X1_8
*259 y5[1]
*260 DFFPOSX1_15
*261 BUFX4_4
*262 BUFX4_2
*263 BUFX4_3
*264 BUFX4_1
*265 y5[1_bF_buf1]
*266 BUFX4_3
*267 INVX1_4
*268 AOI22X1_2
*269 AOI22X1_5
*270 NAND2X1_29
*271 y5[1_bF_buf0]
*272 BUFX4_4
*273 NAND2X1_19
*274 AOI22X1_4
*275 NAND2X1_36
*276 AOI22X1_1
*277 y5[0]
*278 DFFPOSX1_14
*279 BUFX4_6
*280 BUFX4_8
*281 BUFX4_7
*282 BUFX4_5
*283 y5[0_bF_buf0]
*284 BUFX4_8
*285 AOI22X1_1
*286 NAND2X1_31
*287 NAND2X1_21
*288 AOI22X1_5
*289 _17_
*290 NAND2X1_5
*291 OAI21X1_8
*292 OAI21X1_6
*293 OAI21X1_14
*294 INVX1_5
*295 _25_
*296 NOR2X1_5
*297 OAI21X1_5
*298 NOR2X1_6
*299 AOI21X1_7
*300 OAI21X1_3
*301 _46_
*302 NAND2X1_11
*303 AOI21X1_6
*304 NOR2X1_7
*305 NAND2X1_22
*306 OAI22X1_1
*307 _48_
*308 NAND2X1_12
*309 OAI22X1_2
*310 OAI21X1_11
*311 INVX2_3
*312 OAI21X1_10
*313 _50_
*314 NAND2X1_13
*315 AOI21X1_5
*316 NAND2X1_22
*317 OAI22X1_3
*318 NOR2X1_7
*319 _73_
*320 NOR2X1_9
*321 INVX2_5
*322 AOI21X1_20
*323 NAND3X1_26
*324 AOI21X1_21
*325 _76_
*326 NAND2X1_17
*327 NAND3X1_9
*328 AOI21X1_11
*329 OAI22X1_4
*330 NOR2X1_11
*331 _87_
*332 NAND2X1_20
*333 NAND3X1_13
*334 INVX2_4
*335 OAI22X1_3
*336 OAI21X1_18
*337 _89_
*338 NAND2X1_21
*339 OAI22X1_5
*340 NAND3X1_12
*341 AOI21X1_13
*342 NOR2X1_12
*343 _119_
*344 NAND3X1_27
*345 NAND3X1_72
*346 NAND3X1_30
*347 AOI21X1_57
*348 AOI21X1_32
*349 _120_
*350 OR2X2_1
*351 NAND3X1_70
*352 NOR3X1_2
*353 OAI21X1_21
*354 NAND3X1_71
*355 _123_
*356 AOI21X1_19
*357 OAI21X1_45
*358 NOR3X1_2
*359 OAI21X1_21
*360 NOR2X1_14
*361 _124_
*362 AOI21X1_20
*363 OAI21X1_45
*364 OAI21X1_21
*365 NOR3X1_2
*366 NOR2X1_14
*367 _135_
*368 NAND2X1_25
*369 OAI22X1_4
*370 OAI21X1_31
*371 INVX1_12
*372 OAI21X1_24
*373 _141_
*374 NAND2X1_27
*375 OAI22X1_4
*376 NOR2X1_11
*377 XOR2X1_3
*378 XNOR2X1_5
*379 _146_
*380 NAND2X1_29
*381 NAND3X1_31
*382 NOR2X1_13
*383 OAI22X1_3
*384 AOI21X1_26
*385 _149_
*386 NAND2X1_30
*387 OAI22X1_5
*388 NAND3X1_33
*389 INVX1_13
*390 OAI21X1_28
*391 _212_
*392 XNOR2X1_5
*393 XNOR2X1_6
*394 XNOR2X1_7
*395 OAI21X1_38
*396 NOR3X1_5
*397 _222_
*398 NAND3X1_56
*399 NAND3X1_59
*400 NAND3X1_57
*401 AOI21X1_41
*402 AOI21X1_36
*403 _225_
*404 OAI21X1_35
*405 NAND3X1_59
*406 NAND3X1_57
*407 AOI21X1_41
*408 AOI21X1_36
*409 _227_
*410 NOR3X1_3
*411 OAI21X1_38
*412 OAI21X1_37
*413 NOR3X1_5
*414 NOR3X1_4
*415 _228_
*416 AOI21X1_37
*417 NOR3X1_5
*418 NOR3X1_4
*419 OAI21X1_37
*420 OAI21X1_38
*421 _230_
*422 OAI21X1_36
*423 NAND3X1_65
*424 NAND3X1_62
*425 AOI21X1_45
*426 AOI21X1_40
*427 _234_
*428 NAND3X1_58
*429 NAND3X1_65
*430 AOI21X1_45
*431 NAND3X1_62
*432 AOI21X1_40
*433 _236_
*434 AOI21X1_39
*435 AOI21X1_40
*436 NAND3X1_62
*437 XNOR2X1_11
*438 XOR2X1_4
*439 _242_
*440 NAND3X1_60
*441 NAND3X1_64
*442 NAND3X1_61
*443 AOI21X1_43
*444 AOI21X1_46
*445 _246_
*446 OAI21X1_39
*447 NAND3X1_64
*448 NAND3X1_61
*449 AOI21X1_43
*450 AOI21X1_46
*451 _275_
*452 INVX2_7
*453 NAND2X1_42
*454 OR2X2_2
*455 NOR2X1_18
*456 AND2X2_1
*457 _9_
*458 NAND2X1_3
*459 NOR2X1_5
*460 OAI21X1_2
*461 NOR2X1_4
*462 _11_
*463 INVX2_1
*464 NOR2X1_16
*465 OAI21X1_1
*466 OAI21X1_4
*467 _16_
*468 NOR2X1_3
*469 INVX1_50
*470 AOI21X1_56
*471 NAND3X1_4
*472 _20_
*473 AOI21X1_1
*474 AOI21X1_2
*475 NAND3X1_2
*476 INVX1_6
*477 _22_
*478 NAND2X1_6
*479 OAI22X1_1
*480 INVX2_2
*481 OAI21X1_3
*482 _23_
*483 INVX2_2
*484 OAI21X1_5
*485 AOI21X1_7
*486 NAND2X1_8
*487 _38_
*488 NAND3X1_4
*489 INVX1_20
*490 OAI21X1_61
*491 NOR3X1_1
*492 _40_
*493 NAND2X1_9
*494 OAI21X1_8
*495 NAND3X1_8
*496 AOI21X1_12
*497 _42_
*498 NAND2X1_10
*499 OAI21X1_22
*500 NOR2X1_9
*501 OAI21X1_7
*502 _44_
*503 OAI21X1_8
*504 OAI21X1_15
*505 INVX1_8
*506 OAI21X1_13
*507 _49_
*508 INVX2_3
*509 OAI21X1_9
*510 OAI21X1_12
*511 AOI21X1_15
*512 _54_
*513 NOR2X1_7
*514 OAI21X1_12
*515 OAI21X1_10
*516 AOI21X1_15
*517 _55_
*518 AOI22X1_2
*519 OAI22X1_2
*520 OAI21X1_10
*521 OAI21X1_12
*522 _70_
*523 AOI21X1_10
*524 NOR3X1_1
*525 OAI21X1_61
*526 INVX1_21
*527 _74_
*528 OAI21X1_15
*529 NAND3X1_29
*530 NAND3X1_22
*531 AOI21X1_18
*532 y5[5]
*533 DFFPOSX1_19
*534 NAND2X1_16
*535 NAND2X1_25
*536 NAND2X1_34
*537 _75_
*538 NAND2X1_16
*539 NAND3X1_18
*540 INVX1_10
*541 OAI21X1_16
*542 _84_
*543 NAND2X1_18
*544 NAND3X1_24
*545 NAND3X1_17
*546 AOI21X1_29
*547 _86_
*548 OAI22X1_2
*549 NAND3X1_20
*550 AOI21X1_22
*551 NAND3X1_14
*552 _88_
*553 INVX2_4
*554 NAND3X1_15
*555 OAI21X1_17
*556 AOI21X1_27
*557 _92_
*558 OAI21X1_17
*559 NAND3X1_14
*560 NAND3X1_19
*561 AOI21X1_22
*562 _95_
*563 NAND3X1_13
*564 NAND3X1_19
*565 AOI21X1_22
*566 NAND3X1_14
*567 _96_
*568 NAND3X1_14
*569 OAI21X1_23
*570 NAND3X1_23
*571 NAND3X1_17
*572 _98_
*573 AOI21X1_15
*574 NAND3X1_19
*575 AOI21X1_28
*576 NAND3X1_16
*577 _99_
*578 OAI21X1_18
*579 AOI21X1_28
*580 NAND3X1_20
*581 NAND3X1_16
*582 _100_
*583 NAND3X1_15
*584 NAND3X1_20
*585 AOI21X1_28
*586 NAND3X1_16
*587 _101_
*588 NAND3X1_16
*589 NAND3X1_23
*590 NAND3X1_17
*591 AOI21X1_29
*592 _102_
*593 NAND3X1_17
*594 AOI21X1_18
*595 NAND3X1_22
*596 NAND3X1_28
*597 _105_
*598 NAND2X1_23
*599 NAND3X1_21
*600 NAND3X1_23
*601 OAI21X1_23
*602 _108_
*603 NAND3X1_21
*604 NAND3X1_28
*605 NAND3X1_22
*606 AOI21X1_18
*607 _109_
*608 NAND3X1_22
*609 OAI21X1_32
*610 NAND3X1_26
*611 AOI21X1_20
*612 _110_
*613 AOI21X1_16
*614 NAND3X1_28
*615 NAND3X1_25
*616 AOI21X1_17
*617 _111_
*618 NAND3X1_23
*619 NAND3X1_25
*620 AOI21X1_17
*621 NAND3X1_29
*622 _112_
*623 NAND3X1_24
*624 NAND3X1_25
*625 AOI21X1_17
*626 NAND3X1_29
*627 _113_
*628 NAND3X1_25
*629 AOI21X1_20
*630 NAND3X1_26
*631 AOI21X1_21
*632 _115_
*633 INVX2_5
*634 AOI21X1_19
*635 OAI21X1_32
*636 OAI21X1_20
*637 _129_
*638 NOR2X1_10
*639 NAND2X1_39
*640 XNOR2X1_2
*641 XOR2X1_1
*642 _131_
*643 OAI21X1_22
*644 NAND2X1_39
*645 XOR2X1_1
*646 XNOR2X1_2
*647 _132_
*648 XOR2X1_1
*649 OAI21X1_33
*650 NAND3X1_44
*651 AOI21X1_33
*652 _134_
*653 OAI21X1_23
*654 NAND3X1_46
*655 NAND3X1_40
*656 AOI21X1_31
*657 _143_
*658 AOI22X1_3
*659 OAI21X1_25
*660 OAI21X1_31
*661 OAI22X1_4
*662 _145_
*663 NAND2X1_28
*664 NAND3X1_42
*665 AOI21X1_39
*666 NAND3X1_36
*667 _148_
*668 OAI22X1_3
*669 NAND3X1_38
*670 AOI21X1_42
*671 NAND3X1_34
*672 _151_
*673 NAND2X1_31
*674 AOI21X1_25
*675 NAND3X1_32
*676 NOR2X1_13
*677 _154_
*678 OAI21X1_26
*679 NAND3X1_34
*680 AOI21X1_42
*681 NAND3X1_37
*682 _157_
*683 NAND3X1_33
*684 NAND3X1_34
*685 AOI21X1_42
*686 NAND3X1_37
*687 _158_
*688 NAND3X1_34
*689 OAI21X1_40
*690 NAND3X1_41
*691 NAND3X1_36
*692 _163_
*693 AOI21X1_27
*694 NAND3X1_35
*695 NAND3X1_37
*696 AOI21X1_38
*697 _164_
*698 OAI21X1_28
*699 NAND3X1_38
*700 NAND3X1_35
*701 AOI21X1_38
*702 _167_
*703 OAI21X1_29
*704 NAND3X1_38
*705 AOI21X1_38
*706 NAND3X1_35
*707 _168_
*708 NAND3X1_35
*709 NAND3X1_41
*710 NAND3X1_36
*711 AOI21X1_39
*712 _169_
*713 NAND3X1_36
*714 AOI21X1_31
*715 NAND3X1_45
*716 NAND3X1_40
*717 _172_
*718 NAND2X1_32
*719 OAI21X1_40
*720 NAND3X1_39
*721 NAND3X1_41
*722 _175_
*723 NAND3X1_39
*724 AOI21X1_31
*725 NAND3X1_40
*726 NAND3X1_45
*727 _176_
*728 NAND3X1_40
*729 NAND3X1_44
*730 NAND3X1_49
*731 OAI21X1_42
*732 _178_
*733 AOI21X1_29
*734 NAND3X1_43
*735 AOI21X1_30
*736 NAND3X1_45
*737 _179_
*738 NAND3X1_41
*739 NAND3X1_46
*740 NAND3X1_43
*741 AOI21X1_30
*742 _180_
*743 NAND3X1_42
*744 NAND3X1_46
*745 NAND3X1_43
*746 AOI21X1_30
*747 _181_
*748 NAND3X1_43
*749 NAND3X1_49
*750 NAND3X1_44
*751 AOI21X1_33
*752 _183_
*753 XNOR2X1_2
*754 NAND3X1_49
*755 NAND3X1_47
*756 OAI21X1_42
*757 _206_
*758 OAI22X1_4
*759 XOR2X1_2
*760 XOR2X1_4
*761 XNOR2X1_11
*762 _209_
*763 NAND2X1_34
*764 XNOR2X1_7
*765 INVX2_6
*766 XNOR2X1_9
*767 _214_
*768 NAND2X1_36
*769 NAND3X1_54
*770 AOI21X1_35
*771 OAI22X1_5
*772 _217_
*773 NAND2X1_37
*774 NOR3X1_3
*775 OAI21X1_35
*776 INVX1_17
*777 y4[7]
*778 DFFPOSX1_45
*779 AOI21X1_35
*780 NAND2X1_38
*781 NAND3X1_54
*782 _257_
*783 XNOR2X1_10
*784 NAND3X1_64
*785 AOI21X1_46
*786 INVX1_19
*787 _293_
*788 AND2X2_2
*789 NOR2X1_29
*790 NAND2X1_44
*791 XOR2X1_6
*792 C[0]
*793 XOR2X1_12
*794 NOR2X1_30
*795 OAI21X1_50
*796 D[0]
*797 DFFPOSX1_6
*798 XOR2X1_12
*799 INVX1_30
*800 D[1]
*801 DFFPOSX1_7
*802 OAI21X1_51
*803 XNOR2X1_17
*804 D[2]
*805 OAI21X1_52
*806 DFFPOSX1_8
*807 XNOR2X1_19
*808 D[3]
*809 OAI21X1_53
*810 DFFPOSX1_9
*811 XNOR2X1_20
*812 _339_
*813 OAI21X1_53
*814 AOI21X1_53
*815 AOI21X1_52
*816 XNOR2X1_21
*817 D[4]
*818 NAND2X1_51
*819 NOR2X1_31
*820 DFFPOSX1_10
*821 D[5]
*822 OR2X2_3
*823 DFFPOSX1_11
*824 NAND2X1_52
*825 D[6]
*826 XOR2X1_15
*827 INVX1_38
*828 DFFPOSX1_12
*829 _360_
*830 AND2X2_6
*831 NOR2X1_46
*832 NAND2X1_54
*833 XOR2X1_19
*834 _382_
*835 NAND2X1_57
*836 INVX1_45
*837 AOI21X1_55
*838 NAND3X1_75
*839 _386_
*840 NAND2X1_58
*841 INVX1_46
*842 NAND3X1_75
*843 AOI21X1_55
*844 _407_
*845 NAND2X1_2
*846 NOR2X1_1
*847 OAI21X1_60
*848 _4_
*849 INVX1_1
*850 AND2X2_9
*851 NOR2X1_3
*852 _5_
*853 INVX1_2
*854 OAI21X1_4
*855 NOR2X1_2
*856 _7_
*857 NOR2X1_2
*858 AOI21X1_1
*859 INVX1_3
*860 _10_
*861 INVX1_4
*862 OAI21X1_1
*863 OAI21X1_59
*864 _12_
*865 NAND2X1_4
*866 OAI22X1_1
*867 OAI21X1_1
*868 _13_
*869 OAI21X1_1
*870 OAI21X1_2
*871 AOI21X1_1
*872 _15_
*873 XNOR2X1_1
*874 OAI21X1_60
*875 NOR2X1_3
*876 _18_
*877 INVX1_5
*878 NAND3X1_3
*879 AOI21X1_4
*880 _21_
*881 INVX1_6
*882 NAND3X1_1
*883 AOI21X1_3
*884 _24_
*885 NAND2X1_7
*886 OAI22X1_2
*887 NOR2X1_5
*888 _27_
*889 NOR2X1_6
*890 OAI21X1_4
*891 NAND2X1_8
*892 _28_
*893 NAND2X1_8
*894 AOI21X1_3
*895 NAND3X1_1
*896 _29_
*897 OAI21X1_3
*898 AOI21X1_3
*899 NAND3X1_1
*900 _30_
*901 NAND3X1_1
*902 OAI21X1_14
*903 NAND3X1_3
*904 _31_
*905 OAI21X1_4
*906 AOI21X1_2
*907 NAND3X1_2
*908 _32_
*909 OAI21X1_5
*910 AOI21X1_2
*911 NAND3X1_2
*912 _33_
*913 NAND3X1_2
*914 AOI21X1_4
*915 NAND3X1_3
*916 _34_
*917 NAND3X1_3
*918 NAND3X1_4
*919 AOI21X1_56
*920 _35_
*921 AOI21X1_2
*922 AOI21X1_4
*923 OAI21X1_6
*924 _36_
*925 AOI21X1_3
*926 OAI21X1_14
*927 OAI21X1_6
*928 _37_
*929 OAI21X1_6
*930 AOI21X1_56
*931 NAND3X1_4
*932 _39_
*933 AOI21X1_4
*934 NOR2X1_8
*935 OR2X2_1
*936 _45_
*937 INVX1_8
*938 AOI21X1_16
*939 NAND3X1_7
*940 _47_
*941 OAI22X1_1
*942 AOI21X1_9
*943 NAND3X1_5
*944 _51_
*945 AOI21X1_5
*946 OAI21X1_9
*947 OAI21X1_11
*948 _52_
*949 AOI21X1_6
*950 OAI21X1_11
*951 OAI21X1_9
*952 _53_
*953 OAI21X1_9
*954 NAND3X1_5
*955 AOI21X1_9
*956 _56_
*957 OAI21X1_10
*958 NAND3X1_5
*959 AOI21X1_9
*960 _57_
*961 NAND3X1_5
*962 OAI21X1_15
*963 NAND3X1_7
*964 _59_
*965 AOI21X1_7
*966 AOI21X1_8
*967 NAND3X1_6
*968 _60_
*969 OAI21X1_11
*970 NAND3X1_6
*971 AOI21X1_8
*972 _61_
*973 OAI21X1_12
*974 AOI21X1_8
*975 NAND3X1_6
*976 _62_
*977 NAND3X1_6
*978 AOI21X1_16
*979 NAND3X1_7
*980 _63_
*981 NAND3X1_7
*982 NAND2X1_14
*983 AOI21X1_10
*984 _64_
*985 AOI21X1_8
*986 OAI21X1_13
*987 AOI21X1_16
*988 _65_
*989 AOI21X1_9
*990 OAI21X1_15
*991 OAI21X1_13
*992 _66_
*993 OAI21X1_13
*994 NAND2X1_14
*995 AOI21X1_10
*996 _67_
*997 NAND2X1_14
*998 OR2X2_1
*999 NOR2X1_8
*1000 _71_
*1001 NOR3X1_1
*1002 AOI21X1_57
*1003 NAND3X1_30
*1004 _77_
*1005 AOI21X1_11
*1006 OAI21X1_19
*1007 OAI21X1_16
*1008 _78_
*1009 AOI21X1_12
*1010 OAI21X1_19
*1011 OAI21X1_16
*1012 _80_
*1013 INVX1_10
*1014 NAND3X1_10
*1015 OAI21X1_19
*1016 _81_
*1017 NAND3X1_8
*1018 NAND3X1_18
*1019 NAND3X1_10
*1020 _82_
*1021 NAND3X1_9
*1022 NAND3X1_18
*1023 NAND3X1_10
*1024 _90_
*1025 AOI21X1_13
*1026 OAI21X1_18
*1027 OAI21X1_17
*1028 _91_
*1029 AOI21X1_14
*1030 OAI21X1_18
*1031 OAI21X1_17
*1032 _93_
*1033 NAND3X1_11
*1034 NAND3X1_13
*1035 NAND3X1_15
*1036 _94_
*1037 NAND3X1_12
*1038 NAND3X1_13
*1039 NAND3X1_15
*1040 _103_
*1041 OAI21X1_19
*1042 OAI21X1_22
*1043 NAND2X1_23
*1044 _106_
*1045 NAND3X1_19
*1046 NAND3X1_21
*1047 NAND3X1_24
*1048 _107_
*1049 NAND3X1_20
*1050 NAND3X1_21
*1051 NAND3X1_24
*1052 _114_
*1053 NAND3X1_26
*1054 NAND3X1_27
*1055 NAND3X1_71
*1056 _116_
*1057 AOI21X1_17
*1058 OAI21X1_20
*1059 AOI21X1_21
*1060 _117_
*1061 AOI21X1_18
*1062 OAI21X1_32
*1063 OAI21X1_20
*1064 _118_
*1065 OAI21X1_20
*1066 NAND3X1_71
*1067 NAND3X1_27
*1068 _125_
*1069 OAI21X1_21
*1070 NAND3X1_30
*1071 AOI21X1_57
*1072 _126_
*1073 NAND3X1_30
*1074 OAI21X1_34
*1075 XNOR2X1_3
*1076 _127_
*1077 AOI21X1_21
*1078 NAND3X1_52
*1079 NAND3X1_48
*1080 _128_
*1081 INVX1_11
*1082 NOR2X1_10
*1083 NOR2X1_16
*1084 _130_
*1085 NAND2X1_24
*1086 AOI21X1_24
*1087 OAI21X1_22
*1088 _137_
*1089 AOI21X1_23
*1090 OAI21X1_30
*1091 OAI21X1_24
*1092 _138_
*1093 AOI21X1_24
*1094 OAI21X1_24
*1095 OAI21X1_30
*1096 _140_
*1097 INVX1_12
*1098 OAI21X1_30
*1099 OAI21X1_25
*1100 _142_
*1101 NOR2X1_11
*1102 OAI21X1_31
*1103 OAI21X1_25
*1104 _150_
*1105 INVX1_13
*1106 OAI21X1_26
*1107 OAI21X1_29
*1108 _152_
*1109 AOI21X1_25
*1110 OAI21X1_28
*1111 OAI21X1_26
*1112 _153_
*1113 AOI21X1_26
*1114 OAI21X1_26
*1115 OAI21X1_28
*1116 _160_
*1117 INVX1_14
*1118 OAI21X1_27
*1119 NOR2X1_19
*1120 _166_
*1121 AOI22X1_5
*1122 OAI22X1_5
*1123 OAI21X1_29
*1124 _173_
*1125 NAND3X1_37
*1126 NAND3X1_42
*1127 NAND3X1_39
*1128 _174_
*1129 NAND3X1_38
*1130 NAND3X1_42
*1131 NAND3X1_39
*1132 _182_
*1133 NAND3X1_44
*1134 NAND3X1_51
*1135 NAND3X1_48
*1136 _186_
*1137 NAND3X1_47
*1138 NAND3X1_51
*1139 NAND3X1_48
*1140 _187_
*1141 NAND3X1_48
*1142 NAND3X1_72
*1143 AOI21X1_32
*1144 _188_
*1145 OAI21X1_32
*1146 NAND3X1_50
*1147 NAND3X1_51
*1148 _189_
*1149 NAND3X1_49
*1150 NAND3X1_50
*1151 NAND3X1_52
*1152 _190_
*1153 AOI21X1_30
*1154 OAI21X1_33
*1155 AOI21X1_33
*1156 _191_
*1157 AOI21X1_31
*1158 OAI21X1_33
*1159 OAI21X1_42
*1160 _192_
*1161 OAI21X1_33
*1162 NAND3X1_50
*1163 NAND3X1_52
*1164 _193_
*1165 NAND3X1_50
*1166 NAND3X1_72
*1167 AOI21X1_32
*1168 _194_
*1169 AOI21X1_32
*1170 NOR2X1_15
*1171 AOI21X1_49
*1172 _197_
*1173 NAND3X1_52
*1174 AOI22X1_6
*1175 NAND3X1_53
*1176 _198_
*1177 AOI22X1_6
*1178 NOR2X1_15
*1179 OAI21X1_34
*1180 _203_
*1181 AOI21X1_33
*1182 NAND3X1_68
*1183 AOI21X1_44
*1184 _204_
*1185 NAND2X1_33
*1186 XNOR2X1_10
*1187 XNOR2X1_4
*1188 _205_
*1189 NOR2X1_16
*1190 XNOR2X1_10
*1191 XOR2X1_2
*1192 _208_
*1193 XNOR2X1_4
*1194 OAI21X1_41
*1195 INVX1_18
*1196 _210_
*1197 INVX2_6
*1198 XNOR2X1_6
*1199 XNOR2X1_8
*1200 _211_
*1201 NAND2X1_35
*1202 XOR2X1_3
*1203 XNOR2X1_5
*1204 _216_
*1205 INVX1_16
*1206 NAND3X1_57
*1207 AOI21X1_36
*1208 _218_
*1209 INVX1_17
*1210 AOI21X1_37
*1211 NAND3X1_56
*1212 _219_
*1213 NAND3X1_54
*1214 NAND3X1_56
*1215 AOI21X1_37
*1216 _220_
*1217 NAND2X1_38
*1218 NAND3X1_55
*1219 AOI21X1_34
*1220 _221_
*1221 NAND3X1_55
*1222 NAND3X1_56
*1223 AOI21X1_37
*1224 _223_
*1225 AOI21X1_34
*1226 OAI21X1_35
*1227 NOR3X1_3
*1228 _224_
*1229 AOI21X1_35
*1230 OAI21X1_35
*1231 NOR3X1_3
*1232 _240_
*1233 XOR2X1_3
*1234 NAND3X1_59
*1235 AOI21X1_41
*1236 _248_
*1237 OAI21X1_40
*1238 NAND3X1_61
*1239 AOI21X1_43
*1240 _250_
*1241 OAI21X1_41
*1242 NAND3X1_68
*1243 AOI21X1_44
*1244 _254_
*1245 NAND3X1_63
*1246 NAND3X1_68
*1247 AOI21X1_44
*1248 _256_
*1249 OAI21X1_42
*1250 AOI21X1_47
*1251 NAND3X1_67
*1252 _259_
*1253 INVX1_19
*1254 NAND3X1_65
*1255 AOI21X1_45
*1256 _262_
*1257 NAND3X1_66
*1258 NAND3X1_67
*1259 AOI21X1_47
*1260 _266_
*1261 OAI21X1_43
*1262 NAND3X1_67
*1263 AOI21X1_47
*1264 _268_
*1265 NOR2X1_17
*1266 OAI21X1_46
*1267 NAND2X1_40
*1268 _269_
*1269 NAND2X1_39
*1270 INVX2_7
*1271 XNOR2X1_12
*1272 _274_
*1273 NAND2X1_41
*1274 NAND3X1_73
*1275 OAI21X1_44
*1276 _276_
*1277 AND2X2_1
*1278 OAI21X1_44
*1279 OAI21X1_46
*1280 _277_
*1281 NOR2X1_18
*1282 OAI21X1_44
*1283 OAI21X1_46
*1284 _280_
*1285 INVX1_20
*1286 NAND3X1_70
*1287 NOR2X1_47
*1288 _282_
*1289 NAND3X1_70
*1290 AND2X2_11
*1291 AOI21X1_48
*1292 _285_
*1293 AOI21X1_48
*1294 AOI21X1_49
*1295 NOR2X1_48
*1296 B[0]
*1297 AND2X2_2
*1298 NOR2X1_28
*1299 A[0]
*1300 AND2X2_2
*1301 NOR2X1_28
*1302 B[1]
*1303 XOR2X1_5
*1304 INVX1_22
*1305 A[1]
*1306 XOR2X1_5
*1307 INVX1_23
*1308 _294_
*1309 XOR2X1_5
*1310 NAND2X1_44
*1311 XOR2X1_6
*1312 _298_
*1313 OAI21X1_47
*1314 XOR2X1_7
*1315 AOI21X1_50
*1316 B[2]
*1317 NOR2X1_20
*1318 AND2X2_3
*1319 A[2]
*1320 AND2X2_3
*1321 NOR2X1_20
*1322 _299_
*1323 AND2X2_3
*1324 NOR2X1_21
*1325 AOI21X1_50
*1326 _301_
*1327 NOR2X1_21
*1328 AOI21X1_50
*1329 XOR2X1_7
*1330 _302_
*1331 AOI21X1_50
*1332 XNOR2X1_13
*1333 OAI21X1_48
*1334 B[3]
*1335 INVX1_24
*1336 NOR2X1_23
*1337 A[3]
*1338 INVX1_25
*1339 NOR2X1_23
*1340 _305_
*1341 NOR2X1_22
*1342 NOR2X1_24
*1343 INVX1_26
*1344 _306_
*1345 NOR2X1_23
*1346 NOR2X1_24
*1347 OAI21X1_48
*1348 B[4]
*1349 XOR2X1_8
*1350 NAND2X1_45
*1351 A[4]
*1352 NAND2X1_45
*1353 XOR2X1_8
*1354 _308_
*1355 XOR2X1_8
*1356 NAND2X1_46
*1357 XOR2X1_9
*1358 _310_
*1359 OAI21X1_48
*1360 XOR2X1_9
*1361 NAND2X1_46
*1362 _313_
*1363 NAND2X1_47
*1364 AOI21X1_51
*1365 XOR2X1_10
*1366 B[5]
*1367 NOR2X1_26
*1368 INVX1_27
*1369 A[5]
*1370 INVX1_28
*1371 NOR2X1_26
*1372 _316_
*1373 NOR2X1_25
*1374 AOI21X1_51
*1375 NOR2X1_27
*1376 _317_
*1377 NOR2X1_26
*1378 INVX1_29
*1379 NOR2X1_27
*1380 B[6]
*1381 NAND2X1_48
*1382 XNOR2X1_14
*1383 A[6]
*1384 NAND2X1_48
*1385 XNOR2X1_14
*1386 _319_
*1387 XNOR2X1_14
*1388 OAI21X1_49
*1389 XOR2X1_11
*1390 _321_
*1391 AOI21X1_51
*1392 OAI21X1_49
*1393 XOR2X1_11
*1394 _326_
*1395 INVX1_30
*1396 NOR2X1_30
*1397 OAI21X1_50
*1398 C[1]
*1399 XNOR2X1_17
*1400 INVX1_31
*1401 _328_
*1402 XNOR2X1_17
*1403 XNOR2X1_18
*1404 OAI21X1_50
*1405 _331_
*1406 OAI21X1_51
*1407 XOR2X1_13
*1408 NAND2X1_49
*1409 C[2]
*1410 INVX1_32
*1411 XNOR2X1_19
*1412 _332_
*1413 XNOR2X1_19
*1414 XOR2X1_13
*1415 NAND2X1_49
*1416 _335_
*1417 OAI21X1_52
*1418 NAND2X1_50
*1419 XOR2X1_14
*1420 C[3]
*1421 XNOR2X1_20
*1422 INVX1_33
*1423 _336_
*1424 XNOR2X1_20
*1425 NAND2X1_50
*1426 XOR2X1_14
*1427 _340_
*1428 INVX1_34
*1429 NOR2X1_31
*1430 NAND2X1_51
*1431 _342_
*1432 NOR2X1_31
*1433 INVX1_35
*1434 AOI21X1_52
*1435 _343_
*1436 INVX1_35
*1437 OAI21X1_54
*1438 AND2X2_4
*1439 _344_
*1440 AND2X2_4
*1441 INVX2_8
*1442 AOI21X1_52
*1443 _345_
*1444 INVX2_8
*1445 NOR2X1_32
*1446 XNOR2X1_21
*1447 _347_
*1448 INVX1_36
*1449 NAND2X1_52
*1450 OR2X2_3
*1451 _349_
*1452 OR2X2_3
*1453 OAI21X1_54
*1454 AND2X2_5
*1455 _350_
*1456 AND2X2_5
*1457 INVX1_37
*1458 XNOR2X1_22
*1459 _351_
*1460 INVX1_37
*1461 NOR2X1_32
*1462 OAI21X1_54
*1463 _354_
*1464 AOI21X1_53
*1465 XOR2X1_16
*1466 OAI21X1_55
*1467 C[6]
*1468 XOR2X1_15
*1469 NAND2X1_53
*1470 _355_
*1471 XOR2X1_15
*1472 OAI21X1_55
*1473 XOR2X1_16
*1474 D[7]
*1475 DFFPOSX1_13
*1476 XOR2X1_17
*1477 y1[0]
*1478 DFFPOSX1_46
*1479 NOR2X1_45
*1480 AND2X2_6
*1481 y2[0]
*1482 DFFPOSX1_30
*1483 NOR2X1_45
*1484 AND2X2_6
*1485 y1[1]
*1486 DFFPOSX1_47
*1487 INVX1_39
*1488 XOR2X1_18
*1489 y2[1]
*1490 DFFPOSX1_31
*1491 XOR2X1_18
*1492 INVX1_40
*1493 _361_
*1494 XOR2X1_18
*1495 NAND2X1_54
*1496 XOR2X1_19
*1497 _365_
*1498 OAI21X1_56
*1499 AOI21X1_54
*1500 XOR2X1_20
*1501 y1[2]
*1502 DFFPOSX1_48
*1503 NOR2X1_33
*1504 AND2X2_7
*1505 y2[2]
*1506 DFFPOSX1_32
*1507 NOR2X1_33
*1508 AND2X2_7
*1509 _366_
*1510 AND2X2_7
*1511 NOR2X1_34
*1512 AOI21X1_54
*1513 _368_
*1514 NOR2X1_34
*1515 AOI21X1_54
*1516 XOR2X1_20
*1517 _369_
*1518 AOI21X1_54
*1519 XNOR2X1_24
*1520 OAI21X1_57
*1521 y1[3]
*1522 DFFPOSX1_1
*1523 NAND2X1_55
*1524 XOR2X1_21
*1525 y2[3]
*1526 DFFPOSX1_33
*1527 NAND2X1_55
*1528 XOR2X1_21
*1529 _370_
*1530 XOR2X1_21
*1531 INVX1_41
*1532 XNOR2X1_24
*1533 _373_
*1534 OAI21X1_57
*1535 NAND2X1_56
*1536 XNOR2X1_25
*1537 y1[4]
*1538 DFFPOSX1_2
*1539 NOR2X1_36
*1540 INVX1_42
*1541 _374_
*1542 INVX1_42
*1543 NOR2X1_35
*1544 OAI21X1_58
*1545 y2[4]
*1546 DFFPOSX1_34
*1547 NOR2X1_36
*1548 INVX1_43
*1549 _375_
*1550 INVX1_43
*1551 NOR2X1_35
*1552 OAI21X1_58
*1553 _378_
*1554 NOR2X1_37
*1555 NAND2X1_56
*1556 INVX1_44
*1557 _381_
*1558 OAI21X1_58
*1559 NAND2X1_58
*1560 NOR2X1_40
*1561 y1[5]
*1562 DFFPOSX1_3
*1563 NOR2X1_38
*1564 NAND2X1_57
*1565 y2[5]
*1566 DFFPOSX1_35
*1567 NOR2X1_38
*1568 NAND2X1_57
*1569 _385_
*1570 NOR2X1_39
*1571 NOR2X1_40
*1572 NAND2X1_58
*1573 y1[6]
*1574 DFFPOSX1_4
*1575 NOR2X1_42
*1576 NAND2X1_59
*1577 y2[6]
*1578 DFFPOSX1_36
*1579 NOR2X1_42
*1580 NAND2X1_59
*1581 _390_
*1582 INVX1_47
*1583 NOR2X1_43
*1584 NOR2X1_44
*1585 _393_
*1586 INVX1_48
*1587 AOI21X1_55
*1588 NAND3X1_75
*1589 _394_
*1590 AOI21X1_55
*1591 INVX1_49
*1592 NOR2X1_44
*1593 _408_
*1594 NOR2X1_1
*1595 INVX1_1
*1596 _8_
*1597 INVX1_3
*1598 XNOR2X1_1
*1599 _14_
*1600 OAI21X1_2
*1601 XNOR2X1_1
*1602 _19_
*1603 NOR2X1_4
*1604 AOI21X1_1
*1605 _41_
*1606 INVX1_7
*1607 OAI21X1_7
*1608 _43_
*1609 OAI21X1_7
*1610 OAI21X1_8
*1611 _58_
*1612 INVX1_9
*1613 AOI21X1_7
*1614 _69_
*1615 OAI21X1_14
*1616 AOI21X1_10
*1617 _72_
*1618 NAND2X1_15
*1619 NOR2X1_9
*1620 _79_
*1621 OAI21X1_16
*1622 NAND2X1_18
*1623 _83_
*1624 NAND3X1_10
*1625 NAND2X1_18
*1626 _97_
*1627 NAND2X1_22
*1628 AOI21X1_15
*1629 _104_
*1630 NAND3X1_18
*1631 NAND2X1_23
*1632 _121_
*1633 NAND3X1_28
*1634 AOI21X1_19
*1635 _122_
*1636 NAND3X1_29
*1637 AOI21X1_19
*1638 y5[6]
*1639 DFFPOSX1_20
*1640 INVX1_11
*1641 _133_
*1642 AOI21X1_22
*1643 OAI21X1_23
*1644 _136_
*1645 NAND2X1_26
*1646 AOI21X1_23
*1647 _139_
*1648 OAI21X1_24
*1649 NAND2X1_28
*1650 _144_
*1651 OAI21X1_25
*1652 NAND2X1_28
*1653 _147_
*1654 AOI22X1_4
*1655 OAI22X1_3
*1656 _155_
*1657 NAND3X1_31
*1658 NAND3X1_33
*1659 _156_
*1660 NAND3X1_32
*1661 NAND3X1_33
*1662 _159_
*1663 NOR2X1_12
*1664 AOI21X1_27
*1665 _161_
*1666 INVX1_15
*1667 OAI21X1_27
*1668 _162_
*1669 OAI21X1_27
*1670 AOI21X1_27
*1671 _165_
*1672 NOR2X1_13
*1673 OAI21X1_29
*1674 _170_
*1675 OAI21X1_30
*1676 NAND2X1_32
*1677 _171_
*1678 OAI21X1_31
*1679 NAND2X1_32
*1680 _177_
*1681 AOI21X1_28
*1682 AOI21X1_29
*1683 _184_
*1684 NAND3X1_45
*1685 NAND3X1_47
*1686 _185_
*1687 NAND3X1_46
*1688 NAND3X1_47
*1689 _195_
*1690 NOR2X1_14
*1691 AOI22X1_6
*1692 _199_
*1693 NOR2X1_15
*1694 XNOR2X1_3
*1695 _0_[6]
*1696 XNOR2X1_3
*1697 DFFPOSX1_28
*1698 _200_
*1699 NOR3X1_2
*1700 NAND3X1_53
*1701 _201_
*1702 NAND3X1_53
*1703 OAI21X1_34
*1704 _202_
*1705 OAI21X1_34
*1706 NAND3X1_69
*1707 y5[7]
*1708 DFFPOSX1_21
*1709 NAND2X1_33
*1710 _207_
*1711 XOR2X1_2
*1712 XNOR2X1_4
*1713 _213_
*1714 XNOR2X1_6
*1715 OAI21X1_36
*1716 _226_
*1717 AOI21X1_36
*1718 OAI21X1_36
*1719 _229_
*1720 NOR3X1_4
*1721 OAI21X1_36
*1722 _231_
*1723 XNOR2X1_7
*1724 NAND3X1_58
*1725 _232_
*1726 OAI21X1_37
*1727 NAND3X1_58
*1728 _233_
*1729 NAND3X1_57
*1730 NAND3X1_58
*1731 _235_
*1732 AOI21X1_38
*1733 AOI21X1_39
*1734 _237_
*1735 AOI21X1_40
*1736 OAI21X1_41
*1737 _238_
*1738 XNOR2X1_8
*1739 NAND3X1_60
*1740 _239_
*1741 OAI21X1_38
*1742 NAND3X1_60
*1743 _241_
*1744 NAND3X1_59
*1745 NAND3X1_60
*1746 _243_
*1747 XNOR2X1_9
*1748 OAI21X1_39
*1749 _244_
*1750 AOI21X1_41
*1751 OAI21X1_39
*1752 _245_
*1753 NOR3X1_5
*1754 OAI21X1_39
*1755 _247_
*1756 AOI21X1_42
*1757 OAI21X1_40
*1758 _249_
*1759 AOI21X1_43
*1760 OAI21X1_41
*1761 _251_
*1762 INVX1_18
*1763 NAND3X1_63
*1764 _252_
*1765 NAND3X1_61
*1766 NAND3X1_63
*1767 _253_
*1768 NAND3X1_62
*1769 NAND3X1_63
*1770 _255_
*1771 AOI21X1_44
*1772 NOR2X1_17
*1773 _258_
*1774 NAND3X1_64
*1775 NAND3X1_66
*1776 _260_
*1777 NAND3X1_65
*1778 NAND3X1_66
*1779 _261_
*1780 XNOR2X1_11
*1781 NAND3X1_66
*1782 _263_
*1783 AOI21X1_45
*1784 OAI21X1_43
*1785 _264_
*1786 AOI21X1_46
*1787 OAI21X1_43
*1788 _265_
*1789 XOR2X1_4
*1790 OAI21X1_43
*1791 _267_
*1792 AOI21X1_47
*1793 NOR2X1_17
*1794 _270_
*1795 XNOR2X1_12
*1796 NAND2X1_40
*1797 _271_
*1798 NAND2X1_40
*1799 NAND3X1_69
*1800 _272_
*1801 NAND3X1_67
*1802 NAND2X1_41
*1803 _273_
*1804 NAND3X1_68
*1805 NAND2X1_41
*1806 _278_
*1807 OAI21X1_44
*1808 NAND3X1_69
*1809 _279_
*1810 NAND3X1_69
*1811 NAND2X1_43
*1812 _281_
*1813 INVX1_21
*1814 NAND3X1_70
*1815 _283_
*1816 OAI21X1_45
*1817 AOI21X1_48
*1818 _284_
*1819 NAND3X1_71
*1820 AOI21X1_48
*1821 _286_
*1822 NAND3X1_72
*1823 AOI21X1_49
*1824 _287_
*1825 AOI21X1_49
*1826 NAND3X1_74
*1827 _288_
*1828 OAI21X1_46
*1829 NAND3X1_74
*1830 _289_
*1831 NAND2X1_42
*1832 NAND3X1_73
*1833 _290_
*1834 OR2X2_2
*1835 NAND3X1_73
*1836 _291_
*1837 NAND3X1_73
*1838 NAND3X1_74
*1839 _292_
*1840 NAND3X1_74
*1841 NAND2X1_43
*1842 _0_[7]
*1843 NAND2X1_43
*1844 DFFPOSX1_29
*1845 _0_[0]
*1846 NOR2X1_19
*1847 DFFPOSX1_22
*1848 _1_[1]
*1849 XOR2X1_6
*1850 DFFPOSX1_47
*1851 _295_
*1852 INVX1_22
*1853 OAI21X1_47
*1854 _296_
*1855 INVX1_23
*1856 OAI21X1_47
*1857 _297_
*1858 NAND2X1_44
*1859 OAI21X1_47
*1860 _300_
*1861 NOR2X1_20
*1862 NOR2X1_21
*1863 _1_[2]
*1864 XOR2X1_7
*1865 DFFPOSX1_48
*1866 _303_
*1867 INVX1_24
*1868 NOR2X1_22
*1869 _304_
*1870 INVX1_25
*1871 NOR2X1_22
*1872 _307_
*1873 NOR2X1_24
*1874 XNOR2X1_13
*1875 _1_[3]
*1876 XNOR2X1_13
*1877 DFFPOSX1_1
*1878 _309_
*1879 INVX1_26
*1880 OAI21X1_48
*1881 _1_[4]
*1882 XOR2X1_9
*1883 DFFPOSX1_2
*1884 _311_
*1885 NAND2X1_45
*1886 NAND2X1_47
*1887 _312_
*1888 NAND2X1_46
*1889 NAND2X1_47
*1890 _314_
*1891 INVX1_27
*1892 NOR2X1_25
*1893 _315_
*1894 INVX1_28
*1895 NOR2X1_25
*1896 _318_
*1897 NOR2X1_27
*1898 XOR2X1_10
*1899 _1_[5]
*1900 XOR2X1_10
*1901 DFFPOSX1_3
*1902 _320_
*1903 INVX1_29
*1904 AOI21X1_51
*1905 _1_[6]
*1906 XOR2X1_11
*1907 DFFPOSX1_4
*1908 _322_
*1909 NAND2X1_48
*1910 OAI21X1_49
*1911 _323_
*1912 OAI21X1_49
*1913 XNOR2X1_16
*1914 B[7]
*1915 XNOR2X1_15
*1916 A[7]
*1917 XNOR2X1_15
*1918 _324_
*1919 XNOR2X1_15
*1920 XNOR2X1_16
*1921 _1_[7]
*1922 XNOR2X1_16
*1923 DFFPOSX1_5
*1924 _325_
*1925 NOR2X1_28
*1926 NOR2X1_29
*1927 _1_[0]
*1928 NOR2X1_29
*1929 DFFPOSX1_46
*1930 _2_[0]
*1931 XOR2X1_12
*1932 DFFPOSX1_30
*1933 _327_
*1934 NOR2X1_30
*1935 XNOR2X1_18
*1936 _2_[1]
*1937 XNOR2X1_18
*1938 DFFPOSX1_31
*1939 _329_
*1940 INVX1_31
*1941 OAI21X1_51
*1942 _330_
*1943 OAI21X1_50
*1944 OAI21X1_51
*1945 _2_[2]
*1946 XOR2X1_13
*1947 DFFPOSX1_32
*1948 _333_
*1949 INVX1_32
*1950 OAI21X1_52
*1951 _334_
*1952 NAND2X1_49
*1953 OAI21X1_52
*1954 _2_[3]
*1955 XOR2X1_14
*1956 DFFPOSX1_33
*1957 _337_
*1958 INVX1_33
*1959 OAI21X1_53
*1960 _338_
*1961 NAND2X1_50
*1962 OAI21X1_53
*1963 C[4]
*1964 INVX1_34
*1965 _341_
*1966 NAND2X1_51
*1967 AND2X2_4
*1968 _2_[4]
*1969 XNOR2X1_21
*1970 DFFPOSX1_34
*1971 _346_
*1972 AOI21X1_52
*1973 XNOR2X1_22
*1974 C[5]
*1975 INVX1_36
*1976 _348_
*1977 NAND2X1_52
*1978 AND2X2_5
*1979 _2_[5]
*1980 XNOR2X1_22
*1981 DFFPOSX1_35
*1982 _352_
*1983 OAI21X1_54
*1984 AOI21X1_53
*1985 _353_
*1986 NOR2X1_32
*1987 AOI21X1_53
*1988 _2_[6]
*1989 XOR2X1_16
*1990 DFFPOSX1_36
*1991 _356_
*1992 INVX1_38
*1993 NAND2X1_53
*1994 _357_
*1995 NAND2X1_53
*1996 OAI21X1_55
*1997 _358_
*1998 OAI21X1_55
*1999 XNOR2X1_23
*2000 C[7]